
---------- Begin Simulation Statistics ----------
final_tick                                   27486000                       # Number of ticks from beginning of simulation (restored from checkpoints and never reset)
host_inst_rate                                  73321                       # Simulator instruction rate (inst/s)
host_mem_usage                                 689324                       # Number of bytes of host memory used
host_op_rate                                   132247                       # Simulator op (including micro ops) rate (op/s)
host_seconds                                     0.08                       # Real time elapsed on the host
host_tick_rate                              352421660                       # Simulator tick rate (ticks/s)
sim_freq                                 1000000000000                       # Frequency of simulated ticks
sim_insts                                        5711                       # Number of instructions simulated
sim_ops                                         10312                       # Number of ops (including micro ops) simulated
sim_seconds                                  0.000027                       # Number of seconds simulated
sim_ticks                                    27486000                       # Number of ticks simulated
system.cpu.branchPred.BTBCorrect                    0                       # Number of correct BTB predictions (this stat may not work properly.
system.cpu.branchPred.BTBHitPct                   nan                       # BTB Hit Percentage
system.cpu.branchPred.BTBHits                       0                       # Number of BTB hits
system.cpu.branchPred.BTBLookups                    0                       # Number of BTB lookups
system.cpu.branchPred.RASInCorrect                  2                       # Number of incorrect RAS predictions.
system.cpu.branchPred.condIncorrect               536                       # Number of conditional branches incorrect
system.cpu.branchPred.condPredicted              1982                       # Number of conditional branches predicted
system.cpu.branchPred.indirectHits                224                       # Number of indirect target hits.
system.cpu.branchPred.indirectLookups            1334                       # Number of indirect predictor lookups.
system.cpu.branchPred.indirectMisses             1110                       # Number of indirect misses.
system.cpu.branchPred.lookups                    2501                       # Number of BP lookups
system.cpu.branchPred.usedRAS                     239                       # Number of times the RAS was used to get a target.
system.cpu.branchPredindirectMispredicted          334                       # Number of mispredicted indirect branches.
system.cpu.cc_regfile_reads                      7340                       # number of cc regfile reads
system.cpu.cc_regfile_writes                     4264                       # number of cc regfile writes
system.cpu.commit.amos                              0                       # Number of atomic instructions committed
system.cpu.commit.branchMispredicts               540                       # The number of times a branch was mispredicted
system.cpu.commit.branches                       1306                       # Number of branches committed
system.cpu.commit.bw_lim_events                    28                       # number cycles where commit BW limit reached
system.cpu.commit.commitNonSpecStalls              12                       # The number of times commit has been forced to stall to communicate backwards
system.cpu.commit.commitSquashedInsts            6819                       # The number of squashed insts skipped by commit
system.cpu.commit.committedInsts                 5711                       # Number of instructions committed
system.cpu.commit.committedOps                  10312                       # Number of ops (including micro ops) committed
system.cpu.commit.committed_per_cycle::samples        19002                       # Number of insts commited each cycle
system.cpu.commit.committed_per_cycle::mean     0.542680                       # Number of insts commited each cycle
system.cpu.commit.committed_per_cycle::stdev     0.862650                       # Number of insts commited each cycle
system.cpu.commit.committed_per_cycle::underflows            0      0.00%      0.00% # Number of insts commited each cycle
system.cpu.commit.committed_per_cycle::0        11654     61.33%     61.33% # Number of insts commited each cycle
system.cpu.commit.committed_per_cycle::1         5409     28.47%     89.80% # Number of insts commited each cycle
system.cpu.commit.committed_per_cycle::2         1285      6.76%     96.56% # Number of insts commited each cycle
system.cpu.commit.committed_per_cycle::3          443      2.33%     98.89% # Number of insts commited each cycle
system.cpu.commit.committed_per_cycle::4          155      0.82%     99.71% # Number of insts commited each cycle
system.cpu.commit.committed_per_cycle::5           12      0.06%     99.77% # Number of insts commited each cycle
system.cpu.commit.committed_per_cycle::6           12      0.06%     99.83% # Number of insts commited each cycle
system.cpu.commit.committed_per_cycle::7            4      0.02%     99.85% # Number of insts commited each cycle
system.cpu.commit.committed_per_cycle::8           28      0.15%    100.00% # Number of insts commited each cycle
system.cpu.commit.committed_per_cycle::overflows            0      0.00%    100.00% # Number of insts commited each cycle
system.cpu.commit.committed_per_cycle::min_value            0                       # Number of insts commited each cycle
system.cpu.commit.committed_per_cycle::max_value            8                       # Number of insts commited each cycle
system.cpu.commit.committed_per_cycle::total        19002                       # Number of insts commited each cycle
system.cpu.commit.fp_insts                          0                       # Number of committed floating point instructions.
system.cpu.commit.function_calls                  112                       # Number of function calls committed.
system.cpu.commit.int_insts                     10193                       # Number of committed integer instructions.
system.cpu.commit.loads                          1084                       # Number of loads committed
system.cpu.commit.membars                           0                       # Number of memory barriers committed
system.cpu.commit.op_class_0::No_OpClass            1      0.01%      0.01% # Class of committed instruction
system.cpu.commit.op_class_0::IntAlu             8273     80.23%     80.24% # Class of committed instruction
system.cpu.commit.op_class_0::IntMult               6      0.06%     80.29% # Class of committed instruction
system.cpu.commit.op_class_0::IntDiv                7      0.07%     80.36% # Class of committed instruction
system.cpu.commit.op_class_0::FloatAdd              0      0.00%     80.36% # Class of committed instruction
system.cpu.commit.op_class_0::FloatCmp              0      0.00%     80.36% # Class of committed instruction
system.cpu.commit.op_class_0::FloatCvt              0      0.00%     80.36% # Class of committed instruction
system.cpu.commit.op_class_0::FloatMult             0      0.00%     80.36% # Class of committed instruction
system.cpu.commit.op_class_0::FloatMultAcc            0      0.00%     80.36% # Class of committed instruction
system.cpu.commit.op_class_0::FloatDiv              0      0.00%     80.36% # Class of committed instruction
system.cpu.commit.op_class_0::FloatMisc             0      0.00%     80.36% # Class of committed instruction
system.cpu.commit.op_class_0::FloatSqrt             0      0.00%     80.36% # Class of committed instruction
system.cpu.commit.op_class_0::SimdAdd               0      0.00%     80.36% # Class of committed instruction
system.cpu.commit.op_class_0::SimdAddAcc            0      0.00%     80.36% # Class of committed instruction
system.cpu.commit.op_class_0::SimdAlu               0      0.00%     80.36% # Class of committed instruction
system.cpu.commit.op_class_0::SimdCmp               0      0.00%     80.36% # Class of committed instruction
system.cpu.commit.op_class_0::SimdCvt               0      0.00%     80.36% # Class of committed instruction
system.cpu.commit.op_class_0::SimdMisc              0      0.00%     80.36% # Class of committed instruction
system.cpu.commit.op_class_0::SimdMult              0      0.00%     80.36% # Class of committed instruction
system.cpu.commit.op_class_0::SimdMultAcc            0      0.00%     80.36% # Class of committed instruction
system.cpu.commit.op_class_0::SimdShift             0      0.00%     80.36% # Class of committed instruction
system.cpu.commit.op_class_0::SimdShiftAcc            0      0.00%     80.36% # Class of committed instruction
system.cpu.commit.op_class_0::SimdDiv               0      0.00%     80.36% # Class of committed instruction
system.cpu.commit.op_class_0::SimdSqrt              0      0.00%     80.36% # Class of committed instruction
system.cpu.commit.op_class_0::SimdFloatAdd            0      0.00%     80.36% # Class of committed instruction
system.cpu.commit.op_class_0::SimdFloatAlu            0      0.00%     80.36% # Class of committed instruction
system.cpu.commit.op_class_0::SimdFloatCmp            0      0.00%     80.36% # Class of committed instruction
system.cpu.commit.op_class_0::SimdFloatCvt            0      0.00%     80.36% # Class of committed instruction
system.cpu.commit.op_class_0::SimdFloatDiv            0      0.00%     80.36% # Class of committed instruction
system.cpu.commit.op_class_0::SimdFloatMisc            0      0.00%     80.36% # Class of committed instruction
system.cpu.commit.op_class_0::SimdFloatMult            0      0.00%     80.36% # Class of committed instruction
system.cpu.commit.op_class_0::SimdFloatMultAcc            0      0.00%     80.36% # Class of committed instruction
system.cpu.commit.op_class_0::SimdFloatSqrt            0      0.00%     80.36% # Class of committed instruction
system.cpu.commit.op_class_0::SimdReduceAdd            0      0.00%     80.36% # Class of committed instruction
system.cpu.commit.op_class_0::SimdReduceAlu            0      0.00%     80.36% # Class of committed instruction
system.cpu.commit.op_class_0::SimdReduceCmp            0      0.00%     80.36% # Class of committed instruction
system.cpu.commit.op_class_0::SimdFloatReduceAdd            0      0.00%     80.36% # Class of committed instruction
system.cpu.commit.op_class_0::SimdFloatReduceCmp            0      0.00%     80.36% # Class of committed instruction
system.cpu.commit.op_class_0::SimdAes               0      0.00%     80.36% # Class of committed instruction
system.cpu.commit.op_class_0::SimdAesMix            0      0.00%     80.36% # Class of committed instruction
system.cpu.commit.op_class_0::SimdSha1Hash            0      0.00%     80.36% # Class of committed instruction
system.cpu.commit.op_class_0::SimdSha1Hash2            0      0.00%     80.36% # Class of committed instruction
system.cpu.commit.op_class_0::SimdSha256Hash            0      0.00%     80.36% # Class of committed instruction
system.cpu.commit.op_class_0::SimdSha256Hash2            0      0.00%     80.36% # Class of committed instruction
system.cpu.commit.op_class_0::SimdShaSigma2            0      0.00%     80.36% # Class of committed instruction
system.cpu.commit.op_class_0::SimdShaSigma3            0      0.00%     80.36% # Class of committed instruction
system.cpu.commit.op_class_0::SimdPredAlu            0      0.00%     80.36% # Class of committed instruction
system.cpu.commit.op_class_0::MemRead            1084     10.51%     90.87% # Class of committed instruction
system.cpu.commit.op_class_0::MemWrite            941      9.13%    100.00% # Class of committed instruction
system.cpu.commit.op_class_0::FloatMemRead            0      0.00%    100.00% # Class of committed instruction
system.cpu.commit.op_class_0::FloatMemWrite            0      0.00%    100.00% # Class of committed instruction
system.cpu.commit.op_class_0::IprAccess             0      0.00%    100.00% # Class of committed instruction
system.cpu.commit.op_class_0::InstPrefetch            0      0.00%    100.00% # Class of committed instruction
system.cpu.commit.op_class_0::total             10312                       # Class of committed instruction
system.cpu.commit.refs                           2025                       # Number of memory references committed
system.cpu.commit.swp_count                         0                       # Number of s/w prefetches committed
system.cpu.commit.vec_insts                         0                       # Number of committed Vector instructions.
system.cpu.committedInsts                        5711                       # Number of Instructions Simulated
system.cpu.committedOps                         10312                       # Number of Ops (including micro ops) Simulated
system.cpu.cpi                               4.812992                       # CPI: Cycles Per Instruction
system.cpu.cpi_total                         4.812992                       # CPI: Total CPI of All Threads
system.cpu.decode.BlockedCycles                  2720                       # Number of cycles decode is blocked
system.cpu.decode.DecodedInsts                  19658                       # Number of instructions handled by decode
system.cpu.decode.IdleCycles                     6867                       # Number of cycles decode is idle
system.cpu.decode.RunCycles                      9622                       # Number of cycles decode is running
system.cpu.decode.SquashCycles                    553                       # Number of cycles decode is squashing
system.cpu.decode.UnblockCycles                   365                       # Number of cycles decode is unblocking
system.cpu.dtb.rdAccesses                        1549                       # TLB accesses on read requests
system.cpu.dtb.rdMisses                            29                       # TLB misses on read requests
system.cpu.dtb.wrAccesses                        1009                       # TLB accesses on write requests
system.cpu.dtb.wrMisses                             9                       # TLB misses on write requests
system.cpu.fetch.Branches                        2501                       # Number of branches that fetch encountered
system.cpu.fetch.CacheLines                      1414                       # Number of cache lines fetched
system.cpu.fetch.Cycles                         12935                       # Number of cycles fetch has run and was not squashing or blocked
system.cpu.fetch.IcacheSquashes                   161                       # Number of outstanding Icache misses that were squashed
system.cpu.fetch.Insts                          12006                       # Number of instructions fetch has processed
system.cpu.fetch.MiscStallCycles                    6                       # Number of cycles fetch has spent waiting on interrupts, or bad addresses, or out of MSHRs
system.cpu.fetch.PendingQuiesceStallCycles           15                       # Number of stall cycles due to pending quiesce instructions
system.cpu.fetch.PendingTrapStallCycles            30                       # Number of stall cycles due to pending traps
system.cpu.fetch.SquashCycles                    1106                       # Number of cycles fetch has spent squashing
system.cpu.fetch.branchRate                  0.090988                       # Number of branch fetches per cycle
system.cpu.fetch.icacheStallCycles               6588                       # Number of cycles fetch is stalled on an Icache miss
system.cpu.fetch.predictedBranches                463                       # Number of branches that fetch has predicted taken
system.cpu.fetch.rate                        0.436788                       # Number of inst fetches per cycle
system.cpu.fetch.rateDist::samples              20127                       # Number of instructions fetched each cycle (Total)
system.cpu.fetch.rateDist::mean              1.049337                       # Number of instructions fetched each cycle (Total)
system.cpu.fetch.rateDist::stdev             0.988657                       # Number of instructions fetched each cycle (Total)
system.cpu.fetch.rateDist::underflows               0      0.00%      0.00% # Number of instructions fetched each cycle (Total)
system.cpu.fetch.rateDist::0                     9364     46.52%     46.52% # Number of instructions fetched each cycle (Total)
system.cpu.fetch.rateDist::1                      406      2.02%     48.54% # Number of instructions fetched each cycle (Total)
system.cpu.fetch.rateDist::2                    10357     51.46%    100.00% # Number of instructions fetched each cycle (Total)
system.cpu.fetch.rateDist::overflows                0      0.00%    100.00% # Number of instructions fetched each cycle (Total)
system.cpu.fetch.rateDist::min_value                0                       # Number of instructions fetched each cycle (Total)
system.cpu.fetch.rateDist::max_value                2                       # Number of instructions fetched each cycle (Total)
system.cpu.fetch.rateDist::total                20127                       # Number of instructions fetched each cycle (Total)
system.cpu.fp_regfile_reads                         2                       # number of floating regfile reads
system.cpu.idleCycles                            7360                       # Total number of cycles that the CPU has spent unscheduled due to idling
system.cpu.iew.branchMispredicts                  546                       # Number of branch mispredicts detected at execute
system.cpu.iew.exec_branches                     1365                       # Number of branches executed
system.cpu.iew.exec_nop                             0                       # number of nop insts executed
system.cpu.iew.exec_rate                     0.440063                       # Inst execution rate
system.cpu.iew.exec_refs                         2549                       # number of memory reference insts executed
system.cpu.iew.exec_stores                       1009                       # Number of stores executed
system.cpu.iew.exec_swp                             0                       # number of swp insts executed
system.cpu.iew.iewBlockCycles                     572                       # Number of cycles IEW is blocking
system.cpu.iew.iewDispLoadInsts                  1980                       # Number of dispatched load instructions
system.cpu.iew.iewDispNonSpecInsts                 18                       # Number of dispatched non-speculative instructions
system.cpu.iew.iewDispSquashedInsts               276                       # Number of squashed instructions skipped by dispatch
system.cpu.iew.iewDispStoreInsts                 1286                       # Number of dispatched store instructions
system.cpu.iew.iewDispatchedInsts               17158                       # Number of instructions dispatched to IQ
system.cpu.iew.iewExecLoadInsts                  1540                       # Number of load instructions executed
system.cpu.iew.iewExecSquashedInsts               364                       # Number of squashed instructions skipped in execute
system.cpu.iew.iewExecutedInsts                 12096                       # Number of executed instructions
system.cpu.iew.iewIQFullEvents                      0                       # Number of times the IQ has become full, causing a stall
system.cpu.iew.iewIdleCycles                        0                       # Number of cycles IEW is idle
system.cpu.iew.iewLSQFullEvents                     0                       # Number of times the LSQ has become full, causing a stall
system.cpu.iew.iewSquashCycles                    553                       # Number of cycles IEW is squashing
system.cpu.iew.iewUnblockCycles                    41                       # Number of cycles IEW is unblocking
system.cpu.iew.lsq.thread0.blockedLoads             0                       # Number of blocked loads due to partial load-store forwarding
system.cpu.iew.lsq.thread0.cacheBlocked             1                       # Number of times an access to memory failed due to the cache being blocked
system.cpu.iew.lsq.thread0.forwLoads               47                       # Number of loads that had data forwarded from stores
system.cpu.iew.lsq.thread0.ignoredResponses            3                       # Number of memory responses ignored because the instruction is squashed
system.cpu.iew.lsq.thread0.invAddrLoads             0                       # Number of loads ignored due to an invalid address
system.cpu.iew.lsq.thread0.invAddrSwpfs             0                       # Number of software prefetches ignored due to an invalid address
system.cpu.iew.lsq.thread0.memOrderViolation           10                       # Number of memory ordering violations
system.cpu.iew.lsq.thread0.rescheduledLoads            0                       # Number of loads that were rescheduled
system.cpu.iew.lsq.thread0.squashedLoads          896                       # Number of loads squashed
system.cpu.iew.lsq.thread0.squashedStores          345                       # Number of stores squashed
system.cpu.iew.memOrderViolationEvents             10                       # Number of memory order violations
system.cpu.iew.predictedNotTakenIncorrect          539                       # Number of branches that were predicted not taken incorrectly
system.cpu.iew.predictedTakenIncorrect              7                       # Number of branches that were predicted taken incorrectly
system.cpu.iew.wb_consumers                     11944                       # num instructions consuming a value
system.cpu.iew.wb_count                         11932                       # cumulative count of insts written-back
system.cpu.iew.wb_fanout                     0.639735                       # average fanout of values written-back
system.cpu.iew.wb_producers                      7641                       # num instructions producing a value
system.cpu.iew.wb_rate                       0.434096                       # insts written-back per cycle
system.cpu.iew.wb_sent                          11970                       # cumulative count of insts sent to commit
system.cpu.int_regfile_reads                    17041                       # number of integer regfile reads
system.cpu.int_regfile_writes                    9368                       # number of integer regfile writes
system.cpu.ipc                               0.207771                       # IPC: Instructions Per Cycle
system.cpu.ipc_total                         0.207771                       # IPC: Total IPC of All Threads
system.cpu.iq.FU_type_0::No_OpClass                 6      0.05%      0.05% # Type of FU issued
system.cpu.iq.FU_type_0::IntAlu                  9793     78.60%     78.64% # Type of FU issued
system.cpu.iq.FU_type_0::IntMult                    9      0.07%     78.72% # Type of FU issued
system.cpu.iq.FU_type_0::IntDiv                     7      0.06%     78.77% # Type of FU issued
system.cpu.iq.FU_type_0::FloatAdd                   0      0.00%     78.77% # Type of FU issued
system.cpu.iq.FU_type_0::FloatCmp                   0      0.00%     78.77% # Type of FU issued
system.cpu.iq.FU_type_0::FloatCvt                   0      0.00%     78.77% # Type of FU issued
system.cpu.iq.FU_type_0::FloatMult                  0      0.00%     78.77% # Type of FU issued
system.cpu.iq.FU_type_0::FloatMultAcc               0      0.00%     78.77% # Type of FU issued
system.cpu.iq.FU_type_0::FloatDiv                   0      0.00%     78.77% # Type of FU issued
system.cpu.iq.FU_type_0::FloatMisc                  0      0.00%     78.77% # Type of FU issued
system.cpu.iq.FU_type_0::FloatSqrt                  0      0.00%     78.77% # Type of FU issued
system.cpu.iq.FU_type_0::SimdAdd                    0      0.00%     78.77% # Type of FU issued
system.cpu.iq.FU_type_0::SimdAddAcc                 0      0.00%     78.77% # Type of FU issued
system.cpu.iq.FU_type_0::SimdAlu                    0      0.00%     78.77% # Type of FU issued
system.cpu.iq.FU_type_0::SimdCmp                    0      0.00%     78.77% # Type of FU issued
system.cpu.iq.FU_type_0::SimdCvt                    0      0.00%     78.77% # Type of FU issued
system.cpu.iq.FU_type_0::SimdMisc                   0      0.00%     78.77% # Type of FU issued
system.cpu.iq.FU_type_0::SimdMult                   0      0.00%     78.77% # Type of FU issued
system.cpu.iq.FU_type_0::SimdMultAcc                0      0.00%     78.77% # Type of FU issued
system.cpu.iq.FU_type_0::SimdShift                  0      0.00%     78.77% # Type of FU issued
system.cpu.iq.FU_type_0::SimdShiftAcc               0      0.00%     78.77% # Type of FU issued
system.cpu.iq.FU_type_0::SimdDiv                    0      0.00%     78.77% # Type of FU issued
system.cpu.iq.FU_type_0::SimdSqrt                   0      0.00%     78.77% # Type of FU issued
system.cpu.iq.FU_type_0::SimdFloatAdd               0      0.00%     78.77% # Type of FU issued
system.cpu.iq.FU_type_0::SimdFloatAlu               0      0.00%     78.77% # Type of FU issued
system.cpu.iq.FU_type_0::SimdFloatCmp               0      0.00%     78.77% # Type of FU issued
system.cpu.iq.FU_type_0::SimdFloatCvt               0      0.00%     78.77% # Type of FU issued
system.cpu.iq.FU_type_0::SimdFloatDiv               0      0.00%     78.77% # Type of FU issued
system.cpu.iq.FU_type_0::SimdFloatMisc              0      0.00%     78.77% # Type of FU issued
system.cpu.iq.FU_type_0::SimdFloatMult              0      0.00%     78.77% # Type of FU issued
system.cpu.iq.FU_type_0::SimdFloatMultAcc            0      0.00%     78.77% # Type of FU issued
system.cpu.iq.FU_type_0::SimdFloatSqrt              0      0.00%     78.77% # Type of FU issued
system.cpu.iq.FU_type_0::SimdReduceAdd              0      0.00%     78.77% # Type of FU issued
system.cpu.iq.FU_type_0::SimdReduceAlu              0      0.00%     78.77% # Type of FU issued
system.cpu.iq.FU_type_0::SimdReduceCmp              0      0.00%     78.77% # Type of FU issued
system.cpu.iq.FU_type_0::SimdFloatReduceAdd            0      0.00%     78.77% # Type of FU issued
system.cpu.iq.FU_type_0::SimdFloatReduceCmp            0      0.00%     78.77% # Type of FU issued
system.cpu.iq.FU_type_0::SimdAes                    0      0.00%     78.77% # Type of FU issued
system.cpu.iq.FU_type_0::SimdAesMix                 0      0.00%     78.77% # Type of FU issued
system.cpu.iq.FU_type_0::SimdSha1Hash               0      0.00%     78.77% # Type of FU issued
system.cpu.iq.FU_type_0::SimdSha1Hash2              0      0.00%     78.77% # Type of FU issued
system.cpu.iq.FU_type_0::SimdSha256Hash             0      0.00%     78.77% # Type of FU issued
system.cpu.iq.FU_type_0::SimdSha256Hash2            0      0.00%     78.77% # Type of FU issued
system.cpu.iq.FU_type_0::SimdShaSigma2              0      0.00%     78.77% # Type of FU issued
system.cpu.iq.FU_type_0::SimdShaSigma3              0      0.00%     78.77% # Type of FU issued
system.cpu.iq.FU_type_0::SimdPredAlu                0      0.00%     78.77% # Type of FU issued
system.cpu.iq.FU_type_0::MemRead                 1611     12.93%     91.70% # Type of FU issued
system.cpu.iq.FU_type_0::MemWrite                1030      8.27%     99.97% # Type of FU issued
system.cpu.iq.FU_type_0::FloatMemRead               0      0.00%     99.97% # Type of FU issued
system.cpu.iq.FU_type_0::FloatMemWrite              4      0.03%    100.00% # Type of FU issued
system.cpu.iq.FU_type_0::IprAccess                  0      0.00%    100.00% # Type of FU issued
system.cpu.iq.FU_type_0::InstPrefetch               0      0.00%    100.00% # Type of FU issued
system.cpu.iq.FU_type_0::total                  12460                       # Type of FU issued
system.cpu.iq.fp_alu_accesses                       4                       # Number of floating point alu accesses
system.cpu.iq.fp_inst_queue_reads                   8                       # Number of floating instruction queue reads
system.cpu.iq.fp_inst_queue_wakeup_accesses            2                       # Number of floating instruction queue wakeup accesses
system.cpu.iq.fp_inst_queue_writes                  8                       # Number of floating instruction queue writes
system.cpu.iq.fu_busy_cnt                        7177                       # FU busy when requested
system.cpu.iq.fu_busy_rate                   0.576003                       # FU busy rate (busy events/executed inst)
system.cpu.iq.fu_full::No_OpClass                   0      0.00%      0.00% # attempts to use FU when none available
system.cpu.iq.fu_full::IntAlu                    6944     96.75%     96.75% # attempts to use FU when none available
system.cpu.iq.fu_full::IntMult                      0      0.00%     96.75% # attempts to use FU when none available
system.cpu.iq.fu_full::IntDiv                       0      0.00%     96.75% # attempts to use FU when none available
system.cpu.iq.fu_full::FloatAdd                     0      0.00%     96.75% # attempts to use FU when none available
system.cpu.iq.fu_full::FloatCmp                     0      0.00%     96.75% # attempts to use FU when none available
system.cpu.iq.fu_full::FloatCvt                     0      0.00%     96.75% # attempts to use FU when none available
system.cpu.iq.fu_full::FloatMult                    0      0.00%     96.75% # attempts to use FU when none available
system.cpu.iq.fu_full::FloatMultAcc                 0      0.00%     96.75% # attempts to use FU when none available
system.cpu.iq.fu_full::FloatDiv                     0      0.00%     96.75% # attempts to use FU when none available
system.cpu.iq.fu_full::FloatMisc                    0      0.00%     96.75% # attempts to use FU when none available
system.cpu.iq.fu_full::FloatSqrt                    0      0.00%     96.75% # attempts to use FU when none available
system.cpu.iq.fu_full::SimdAdd                      0      0.00%     96.75% # attempts to use FU when none available
system.cpu.iq.fu_full::SimdAddAcc                   0      0.00%     96.75% # attempts to use FU when none available
system.cpu.iq.fu_full::SimdAlu                      0      0.00%     96.75% # attempts to use FU when none available
system.cpu.iq.fu_full::SimdCmp                      0      0.00%     96.75% # attempts to use FU when none available
system.cpu.iq.fu_full::SimdCvt                      0      0.00%     96.75% # attempts to use FU when none available
system.cpu.iq.fu_full::SimdMisc                     0      0.00%     96.75% # attempts to use FU when none available
system.cpu.iq.fu_full::SimdMult                     0      0.00%     96.75% # attempts to use FU when none available
system.cpu.iq.fu_full::SimdMultAcc                  0      0.00%     96.75% # attempts to use FU when none available
system.cpu.iq.fu_full::SimdShift                    0      0.00%     96.75% # attempts to use FU when none available
system.cpu.iq.fu_full::SimdShiftAcc                 0      0.00%     96.75% # attempts to use FU when none available
system.cpu.iq.fu_full::SimdDiv                      0      0.00%     96.75% # attempts to use FU when none available
system.cpu.iq.fu_full::SimdSqrt                     0      0.00%     96.75% # attempts to use FU when none available
system.cpu.iq.fu_full::SimdFloatAdd                 0      0.00%     96.75% # attempts to use FU when none available
system.cpu.iq.fu_full::SimdFloatAlu                 0      0.00%     96.75% # attempts to use FU when none available
system.cpu.iq.fu_full::SimdFloatCmp                 0      0.00%     96.75% # attempts to use FU when none available
system.cpu.iq.fu_full::SimdFloatCvt                 0      0.00%     96.75% # attempts to use FU when none available
system.cpu.iq.fu_full::SimdFloatDiv                 0      0.00%     96.75% # attempts to use FU when none available
system.cpu.iq.fu_full::SimdFloatMisc                0      0.00%     96.75% # attempts to use FU when none available
system.cpu.iq.fu_full::SimdFloatMult                0      0.00%     96.75% # attempts to use FU when none available
system.cpu.iq.fu_full::SimdFloatMultAcc             0      0.00%     96.75% # attempts to use FU when none available
system.cpu.iq.fu_full::SimdFloatSqrt                0      0.00%     96.75% # attempts to use FU when none available
system.cpu.iq.fu_full::SimdReduceAdd                0      0.00%     96.75% # attempts to use FU when none available
system.cpu.iq.fu_full::SimdReduceAlu                0      0.00%     96.75% # attempts to use FU when none available
system.cpu.iq.fu_full::SimdReduceCmp                0      0.00%     96.75% # attempts to use FU when none available
system.cpu.iq.fu_full::SimdFloatReduceAdd            0      0.00%     96.75% # attempts to use FU when none available
system.cpu.iq.fu_full::SimdFloatReduceCmp            0      0.00%     96.75% # attempts to use FU when none available
system.cpu.iq.fu_full::SimdAes                      0      0.00%     96.75% # attempts to use FU when none available
system.cpu.iq.fu_full::SimdAesMix                   0      0.00%     96.75% # attempts to use FU when none available
system.cpu.iq.fu_full::SimdSha1Hash                 0      0.00%     96.75% # attempts to use FU when none available
system.cpu.iq.fu_full::SimdSha1Hash2                0      0.00%     96.75% # attempts to use FU when none available
system.cpu.iq.fu_full::SimdSha256Hash               0      0.00%     96.75% # attempts to use FU when none available
system.cpu.iq.fu_full::SimdSha256Hash2              0      0.00%     96.75% # attempts to use FU when none available
system.cpu.iq.fu_full::SimdShaSigma2                0      0.00%     96.75% # attempts to use FU when none available
system.cpu.iq.fu_full::SimdShaSigma3                0      0.00%     96.75% # attempts to use FU when none available
system.cpu.iq.fu_full::SimdPredAlu                  0      0.00%     96.75% # attempts to use FU when none available
system.cpu.iq.fu_full::MemRead                    117      1.63%     98.38% # attempts to use FU when none available
system.cpu.iq.fu_full::MemWrite                   116      1.62%    100.00% # attempts to use FU when none available
system.cpu.iq.fu_full::FloatMemRead                 0      0.00%    100.00% # attempts to use FU when none available
system.cpu.iq.fu_full::FloatMemWrite                0      0.00%    100.00% # attempts to use FU when none available
system.cpu.iq.fu_full::IprAccess                    0      0.00%    100.00% # attempts to use FU when none available
system.cpu.iq.fu_full::InstPrefetch                 0      0.00%    100.00% # attempts to use FU when none available
system.cpu.iq.int_alu_accesses                  19627                       # Number of integer alu accesses
system.cpu.iq.int_inst_queue_reads              54206                       # Number of integer instruction queue reads
system.cpu.iq.int_inst_queue_wakeup_accesses        11930                       # Number of integer instruction queue wakeup accesses
system.cpu.iq.int_inst_queue_writes             24005                       # Number of integer instruction queue writes
system.cpu.iq.iqInstsAdded                      17140                       # Number of instructions added to the IQ (excludes non-spec)
system.cpu.iq.iqInstsIssued                     12460                       # Number of instructions issued
system.cpu.iq.iqNonSpecInstsAdded                  18                       # Number of non-speculative instructions added to the IQ
system.cpu.iq.iqSquashedInstsExamined            6845                       # Number of squashed instructions iterated over during squash; mainly for profiling
system.cpu.iq.iqSquashedInstsIssued              1990                       # Number of squashed instructions issued
system.cpu.iq.iqSquashedNonSpecRemoved              6                       # Number of squashed non-spec instructions that were removed
system.cpu.iq.iqSquashedOperandsExamined        12184                       # Number of squashed operands that are examined and possibly removed from graph
system.cpu.iq.issued_per_cycle::samples         20127                       # Number of insts issued each cycle
system.cpu.iq.issued_per_cycle::mean         0.619069                       # Number of insts issued each cycle
system.cpu.iq.issued_per_cycle::stdev        0.679713                       # Number of insts issued each cycle
system.cpu.iq.issued_per_cycle::underflows            0      0.00%      0.00% # Number of insts issued each cycle
system.cpu.iq.issued_per_cycle::0                9943     49.40%     49.40% # Number of insts issued each cycle
system.cpu.iq.issued_per_cycle::1                7908     39.29%     88.69% # Number of insts issued each cycle
system.cpu.iq.issued_per_cycle::2                2276     11.31%    100.00% # Number of insts issued each cycle
system.cpu.iq.issued_per_cycle::overflows            0      0.00%    100.00% # Number of insts issued each cycle
system.cpu.iq.issued_per_cycle::min_value            0                       # Number of insts issued each cycle
system.cpu.iq.issued_per_cycle::max_value            2                       # Number of insts issued each cycle
system.cpu.iq.issued_per_cycle::total           20127                       # Number of insts issued each cycle
system.cpu.iq.rate                           0.453305                       # Inst issue rate
system.cpu.iq.vec_alu_accesses                      0                       # Number of vector alu accesses
system.cpu.iq.vec_inst_queue_reads                  0                       # Number of vector instruction queue reads
system.cpu.iq.vec_inst_queue_wakeup_accesses            0                       # Number of vector instruction queue wakeup accesses
system.cpu.iq.vec_inst_queue_writes                 0                       # Number of vector instruction queue writes
system.cpu.itb.rdAccesses                           0                       # TLB accesses on read requests
system.cpu.itb.rdMisses                             0                       # TLB misses on read requests
system.cpu.itb.wrAccesses                        1420                       # TLB accesses on write requests
system.cpu.itb.wrMisses                            42                       # TLB misses on write requests
system.cpu.memDep0.conflictingLoads                14                       # Number of conflicting loads.
system.cpu.memDep0.conflictingStores                2                       # Number of conflicting stores.
system.cpu.memDep0.insertedLoads                 1980                       # Number of loads inserted to the mem dependence unit.
system.cpu.memDep0.insertedStores                1286                       # Number of stores inserted to the mem dependence unit.
system.cpu.misc_regfile_reads                    5461                       # number of misc regfile reads
system.cpu.misc_regfile_writes                      1                       # number of misc regfile writes
system.cpu.numCycles                            27487                       # number of cpu cycles simulated
system.cpu.numWorkItemsCompleted                    0                       # number of work items this cpu completed
system.cpu.numWorkItemsStarted                      0                       # number of work items this cpu started
system.cpu.rename.BlockCycles                     611                       # Number of cycles rename is blocking
system.cpu.rename.CommittedMaps                 11801                       # Number of HB maps that are committed
system.cpu.rename.IQFullEvents                     24                       # Number of times rename has blocked due to IQ full
system.cpu.rename.IdleCycles                     7324                       # Number of cycles rename is idle
system.cpu.rename.RenameLookups                 46179                       # Number of register rename lookups that rename has made
system.cpu.rename.RenamedInsts                  18832                       # Number of instructions processed by rename
system.cpu.rename.RenamedOperands               21664                       # Number of destination operands rename has renamed
system.cpu.rename.RunCycles                      9474                       # Number of cycles rename is running
system.cpu.rename.SQFullEvents                   1626                       # Number of times rename has blocked due to SQ full
system.cpu.rename.SquashCycles                    553                       # Number of cycles rename is squashing
system.cpu.rename.UnblockCycles                  1726                       # Number of cycles rename is unblocking
system.cpu.rename.UndoneMaps                     9863                       # Number of HB maps that are undone due to squashing
system.cpu.rename.fp_rename_lookups                 4                       # Number of floating rename lookups
system.cpu.rename.int_rename_lookups            26523                       # Number of integer rename lookups
system.cpu.rename.serializeStallCycles            439                       # count of cycles rename stalled for serializing inst
system.cpu.rename.serializingInsts                 21                       # count of serializing insts renamed
system.cpu.rename.skidInsts                       272                       # count of insts added to the skid buffer
system.cpu.rename.tempSerializingInsts             21                       # count of temporary serializing insts renamed
system.cpu.rob.rob_reads                        36079                       # The number of ROB reads
system.cpu.rob.rob_writes                       35389                       # The number of ROB writes
system.cpu.timesIdled                             170                       # Number of times that the entire CPU went into an idle state and unscheduled itself
system.cpu.workload.numSyscalls                    11                       # Number of system calls
system.membus.snoop_filter.hit_multi_requests            0                       # Number of requests hitting in the snoop filter with multiple (>1) holders of the requested data.
system.membus.snoop_filter.hit_multi_snoops            0                       # Number of snoops hitting in the snoop filter with multiple (>1) holders of the requested data.
system.membus.snoop_filter.hit_single_requests            0                       # Number of requests hitting in the snoop filter with a single holder of the requested data.
system.membus.snoop_filter.hit_single_snoops            0                       # Number of snoops hitting in the snoop filter with a single holder of the requested data.
system.membus.snoop_filter.tot_requests           437                       # Total number of requests made to the snoop filter.
system.membus.snoop_filter.tot_snoops               0                       # Total number of snoops made to the snoop filter.
system.tol2bus.snoop_filter.hit_multi_requests            0                       # Number of requests hitting in the snoop filter with multiple (>1) holders of the requested data.
system.tol2bus.snoop_filter.hit_multi_snoops            0                       # Number of snoops hitting in the snoop filter with multiple (>1) holders of the requested data.
system.tol2bus.snoop_filter.hit_single_requests           20                       # Number of requests hitting in the snoop filter with a single holder of the requested data.
system.tol2bus.snoop_filter.hit_single_snoops            0                       # Number of snoops hitting in the snoop filter with a single holder of the requested data.
system.tol2bus.snoop_filter.tot_requests          415                       # Total number of requests made to the snoop filter.
system.tol2bus.snoop_filter.tot_snoops              0                       # Total number of snoops made to the snoop filter.
system.membus.trans_dist::ReadResp                317                       # Transaction distribution
system.membus.trans_dist::ReadExReq                78                       # Transaction distribution
system.membus.trans_dist::ReadExResp               78                       # Transaction distribution
system.membus.trans_dist::ReadSharedReq           317                       # Transaction distribution
system.membus.pkt_count_system.l2.mem_side::system.physmem.port          790                       # Packet count per connected master and slave (bytes)
system.membus.pkt_count_system.l2.mem_side::total          790                       # Packet count per connected master and slave (bytes)
system.membus.pkt_count::total                    790                       # Packet count per connected master and slave (bytes)
system.membus.pkt_size_system.l2.mem_side::system.physmem.port        25280                       # Cumulative packet size per connected master and slave (bytes)
system.membus.pkt_size_system.l2.mem_side::total        25280                       # Cumulative packet size per connected master and slave (bytes)
system.membus.pkt_size::total                   25280                       # Cumulative packet size per connected master and slave (bytes)
system.membus.snoops                                0                       # Total snoops (count)
system.membus.snoopTraffic                          0                       # Total snoop traffic (bytes)
system.membus.snoop_fanout::samples               437                       # Request fanout histogram
system.membus.snoop_fanout::mean                    0                       # Request fanout histogram
system.membus.snoop_fanout::stdev                   0                       # Request fanout histogram
system.membus.snoop_fanout::underflows              0      0.00%      0.00% # Request fanout histogram
system.membus.snoop_fanout::0                     437    100.00%    100.00% # Request fanout histogram
system.membus.snoop_fanout::1                       0      0.00%    100.00% # Request fanout histogram
system.membus.snoop_fanout::overflows               0      0.00%    100.00% # Request fanout histogram
system.membus.snoop_fanout::min_value               0                       # Request fanout histogram
system.membus.snoop_fanout::max_value               0                       # Request fanout histogram
system.membus.snoop_fanout::total                 437                       # Request fanout histogram
system.membus.reqLayer0.occupancy              654776                       # Layer occupancy (ticks)
system.membus.reqLayer0.utilization               2.4                       # Layer utilization (%)
system.membus.respLayer1.occupancy            1975000                       # Layer occupancy (ticks)
system.membus.respLayer1.utilization              7.2                       # Layer utilization (%)
system.membus.power_state.pwrStateResidencyTicks::UNDEFINED     27486000                       # Cumulative time (in ticks) in various power states
system.tol2bus.trans_dist::ReadResp               318                       # Transaction distribution
system.tol2bus.trans_dist::WritebackClean           19                       # Transaction distribution
system.tol2bus.trans_dist::ReadExReq               78                       # Transaction distribution
system.tol2bus.trans_dist::ReadExResp              78                       # Transaction distribution
system.tol2bus.trans_dist::ReadCleanReq           257                       # Transaction distribution
system.tol2bus.trans_dist::ReadSharedReq           61                       # Transaction distribution
system.tol2bus.pkt_count_system.cpu.icache.mem_side::system.l2.cpu_side          533                       # Packet count per connected master and slave (bytes)
system.tol2bus.pkt_count_system.cpu.dcache.mem_side::system.l2.cpu_side          278                       # Packet count per connected master and slave (bytes)
system.tol2bus.pkt_count::total                   811                       # Packet count per connected master and slave (bytes)
system.tol2bus.pkt_size_system.cpu.icache.mem_side::system.l2.cpu_side        17664                       # Cumulative packet size per connected master and slave (bytes)
system.tol2bus.pkt_size_system.cpu.dcache.mem_side::system.l2.cpu_side         8896                       # Cumulative packet size per connected master and slave (bytes)
system.tol2bus.pkt_size::total                  26560                       # Cumulative packet size per connected master and slave (bytes)
system.tol2bus.snoops                               0                       # Total snoops (count)
system.tol2bus.snoopTraffic                         0                       # Total snoop traffic (bytes)
system.tol2bus.snoop_fanout::samples              396                       # Request fanout histogram
system.tol2bus.snoop_fanout::mean            0.002525                       # Request fanout histogram
system.tol2bus.snoop_fanout::stdev           0.050252                       # Request fanout histogram
system.tol2bus.snoop_fanout::underflows             0      0.00%      0.00% # Request fanout histogram
system.tol2bus.snoop_fanout::0                    395     99.75%     99.75% # Request fanout histogram
system.tol2bus.snoop_fanout::1                      1      0.25%    100.00% # Request fanout histogram
system.tol2bus.snoop_fanout::2                      0      0.00%    100.00% # Request fanout histogram
system.tol2bus.snoop_fanout::3                      0      0.00%    100.00% # Request fanout histogram
system.tol2bus.snoop_fanout::4                      0      0.00%    100.00% # Request fanout histogram
system.tol2bus.snoop_fanout::overflows              0      0.00%    100.00% # Request fanout histogram
system.tol2bus.snoop_fanout::min_value              0                       # Request fanout histogram
system.tol2bus.snoop_fanout::max_value              1                       # Request fanout histogram
system.tol2bus.snoop_fanout::total                396                       # Request fanout histogram
system.tol2bus.reqLayer0.occupancy             226500                       # Layer occupancy (ticks)
system.tol2bus.reqLayer0.utilization              0.8                       # Layer utilization (%)
system.tol2bus.respLayer1.occupancy            208500                       # Layer occupancy (ticks)
system.tol2bus.respLayer1.utilization             0.8                       # Layer utilization (%)
system.tol2bus.respLayer0.occupancy            385500                       # Layer occupancy (ticks)
system.tol2bus.respLayer0.utilization             1.4                       # Layer utilization (%)
system.tol2bus.power_state.pwrStateResidencyTicks::UNDEFINED     27486000                       # Cumulative time (in ticks) in various power states
system.voltage_domain.voltage                       1                       # Voltage in Volts
system.physmem.bytes_read::.cpu.inst            16384                       # Number of bytes read from this memory
system.physmem.bytes_read::.cpu.data             8896                       # Number of bytes read from this memory
system.physmem.bytes_read::total                25280                       # Number of bytes read from this memory
system.physmem.bytes_inst_read::.cpu.inst        16384                       # Number of instructions bytes read from this memory
system.physmem.bytes_inst_read::total           16384                       # Number of instructions bytes read from this memory
system.physmem.num_reads::.cpu.inst               256                       # Number of read requests responded to by this memory
system.physmem.num_reads::.cpu.data               139                       # Number of read requests responded to by this memory
system.physmem.num_reads::total                   395                       # Number of read requests responded to by this memory
system.physmem.bw_read::.cpu.inst           596085280                       # Total read bandwidth from this memory (bytes/s)
system.physmem.bw_read::.cpu.data           323655679                       # Total read bandwidth from this memory (bytes/s)
system.physmem.bw_read::total               919740959                       # Total read bandwidth from this memory (bytes/s)
system.physmem.bw_inst_read::.cpu.inst      596085280                       # Instruction read bandwidth from this memory (bytes/s)
system.physmem.bw_inst_read::total          596085280                       # Instruction read bandwidth from this memory (bytes/s)
system.physmem.bw_total::.cpu.inst          596085280                       # Total bandwidth to/from this memory (bytes/s)
system.physmem.bw_total::.cpu.data          323655679                       # Total bandwidth to/from this memory (bytes/s)
system.physmem.bw_total::total              919740959                       # Total bandwidth to/from this memory (bytes/s)
system.physmem.power_state.pwrStateResidencyTicks::UNDEFINED     27486000                       # Cumulative time (in ticks) in various power states
system.clk_domain.clock                          1000                       # Clock period in ticks
system.l2.demand_hits::.cpu.inst                    1                       # number of demand (read+write) hits
system.l2.demand_hits::total                        1                       # number of demand (read+write) hits
system.l2.overall_hits::.cpu.inst                   1                       # number of overall hits
system.l2.overall_hits::total                       1                       # number of overall hits
system.l2.demand_misses::.cpu.inst                256                       # number of demand (read+write) misses
system.l2.demand_misses::.cpu.data                139                       # number of demand (read+write) misses
system.l2.demand_misses::total                    395                       # number of demand (read+write) misses
system.l2.overall_misses::.cpu.inst               256                       # number of overall misses
system.l2.overall_misses::.cpu.data               139                       # number of overall misses
system.l2.overall_misses::total                   395                       # number of overall misses
system.l2.demand_miss_latency::.cpu.inst     15667000                       # number of demand (read+write) miss cycles
system.l2.demand_miss_latency::.cpu.data      8558000                       # number of demand (read+write) miss cycles
system.l2.demand_miss_latency::total         24225000                       # number of demand (read+write) miss cycles
system.l2.overall_miss_latency::.cpu.inst     15667000                       # number of overall miss cycles
system.l2.overall_miss_latency::.cpu.data      8558000                       # number of overall miss cycles
system.l2.overall_miss_latency::total        24225000                       # number of overall miss cycles
system.l2.demand_accesses::.cpu.inst              257                       # number of demand (read+write) accesses
system.l2.demand_accesses::.cpu.data              139                       # number of demand (read+write) accesses
system.l2.demand_accesses::total                  396                       # number of demand (read+write) accesses
system.l2.overall_accesses::.cpu.inst             257                       # number of overall (read+write) accesses
system.l2.overall_accesses::.cpu.data             139                       # number of overall (read+write) accesses
system.l2.overall_accesses::total                 396                       # number of overall (read+write) accesses
system.l2.demand_miss_rate::.cpu.inst        0.996109                       # miss rate for demand accesses
system.l2.demand_miss_rate::.cpu.data               1                       # miss rate for demand accesses
system.l2.demand_miss_rate::total            0.997475                       # miss rate for demand accesses
system.l2.overall_miss_rate::.cpu.inst       0.996109                       # miss rate for overall accesses
system.l2.overall_miss_rate::.cpu.data              1                       # miss rate for overall accesses
system.l2.overall_miss_rate::total           0.997475                       # miss rate for overall accesses
system.l2.demand_avg_miss_latency::.cpu.inst 61199.218750                       # average overall miss latency
system.l2.demand_avg_miss_latency::.cpu.data 61568.345324                       # average overall miss latency
system.l2.demand_avg_miss_latency::total 61329.113924                       # average overall miss latency
system.l2.overall_avg_miss_latency::.cpu.inst 61199.218750                       # average overall miss latency
system.l2.overall_avg_miss_latency::.cpu.data 61568.345324                       # average overall miss latency
system.l2.overall_avg_miss_latency::total 61329.113924                       # average overall miss latency
system.l2.blocked_cycles::no_mshrs                  0                       # number of cycles access was blocked
system.l2.blocked_cycles::no_targets                0                       # number of cycles access was blocked
system.l2.blocked::no_mshrs                         0                       # number of cycles access was blocked
system.l2.blocked::no_targets                       0                       # number of cycles access was blocked
system.l2.avg_blocked_cycles::no_mshrs            nan                       # average number of cycles each access was blocked
system.l2.avg_blocked_cycles::no_targets          nan                       # average number of cycles each access was blocked
system.l2.demand_mshr_misses::.cpu.inst           256                       # number of demand (read+write) MSHR misses
system.l2.demand_mshr_misses::.cpu.data           139                       # number of demand (read+write) MSHR misses
system.l2.demand_mshr_misses::total               395                       # number of demand (read+write) MSHR misses
system.l2.overall_mshr_misses::.cpu.inst          256                       # number of overall MSHR misses
system.l2.overall_mshr_misses::.cpu.data          139                       # number of overall MSHR misses
system.l2.overall_mshr_misses::total              395                       # number of overall MSHR misses
system.l2.demand_mshr_miss_latency::.cpu.inst     13107000                       # number of demand (read+write) MSHR miss cycles
system.l2.demand_mshr_miss_latency::.cpu.data      7168000                       # number of demand (read+write) MSHR miss cycles
system.l2.demand_mshr_miss_latency::total     20275000                       # number of demand (read+write) MSHR miss cycles
system.l2.overall_mshr_miss_latency::.cpu.inst     13107000                       # number of overall MSHR miss cycles
system.l2.overall_mshr_miss_latency::.cpu.data      7168000                       # number of overall MSHR miss cycles
system.l2.overall_mshr_miss_latency::total     20275000                       # number of overall MSHR miss cycles
system.l2.demand_mshr_miss_rate::.cpu.inst     0.996109                       # mshr miss rate for demand accesses
system.l2.demand_mshr_miss_rate::.cpu.data            1                       # mshr miss rate for demand accesses
system.l2.demand_mshr_miss_rate::total       0.997475                       # mshr miss rate for demand accesses
system.l2.overall_mshr_miss_rate::.cpu.inst     0.996109                       # mshr miss rate for overall accesses
system.l2.overall_mshr_miss_rate::.cpu.data            1                       # mshr miss rate for overall accesses
system.l2.overall_mshr_miss_rate::total      0.997475                       # mshr miss rate for overall accesses
system.l2.demand_avg_mshr_miss_latency::.cpu.inst 51199.218750                       # average overall mshr miss latency
system.l2.demand_avg_mshr_miss_latency::.cpu.data 51568.345324                       # average overall mshr miss latency
system.l2.demand_avg_mshr_miss_latency::total 51329.113924                       # average overall mshr miss latency
system.l2.overall_avg_mshr_miss_latency::.cpu.inst 51199.218750                       # average overall mshr miss latency
system.l2.overall_avg_mshr_miss_latency::.cpu.data 51568.345324                       # average overall mshr miss latency
system.l2.overall_avg_mshr_miss_latency::total 51329.113924                       # average overall mshr miss latency
system.l2.replacements                              0                       # number of replacements
system.l2.WritebackClean_hits::.writebacks           19                       # number of WritebackClean hits
system.l2.WritebackClean_hits::total               19                       # number of WritebackClean hits
system.l2.WritebackClean_accesses::.writebacks           19                       # number of WritebackClean accesses(hits+misses)
system.l2.WritebackClean_accesses::total           19                       # number of WritebackClean accesses(hits+misses)
system.l2.ReadExReq_misses::.cpu.data              78                       # number of ReadExReq misses
system.l2.ReadExReq_misses::total                  78                       # number of ReadExReq misses
system.l2.ReadExReq_miss_latency::.cpu.data      4795000                       # number of ReadExReq miss cycles
system.l2.ReadExReq_miss_latency::total       4795000                       # number of ReadExReq miss cycles
system.l2.ReadExReq_accesses::.cpu.data            78                       # number of ReadExReq accesses(hits+misses)
system.l2.ReadExReq_accesses::total                78                       # number of ReadExReq accesses(hits+misses)
system.l2.ReadExReq_miss_rate::.cpu.data            1                       # miss rate for ReadExReq accesses
system.l2.ReadExReq_miss_rate::total                1                       # miss rate for ReadExReq accesses
system.l2.ReadExReq_avg_miss_latency::.cpu.data 61474.358974                       # average ReadExReq miss latency
system.l2.ReadExReq_avg_miss_latency::total 61474.358974                       # average ReadExReq miss latency
system.l2.ReadExReq_mshr_misses::.cpu.data           78                       # number of ReadExReq MSHR misses
system.l2.ReadExReq_mshr_misses::total             78                       # number of ReadExReq MSHR misses
system.l2.ReadExReq_mshr_miss_latency::.cpu.data      4015000                       # number of ReadExReq MSHR miss cycles
system.l2.ReadExReq_mshr_miss_latency::total      4015000                       # number of ReadExReq MSHR miss cycles
system.l2.ReadExReq_mshr_miss_rate::.cpu.data            1                       # mshr miss rate for ReadExReq accesses
system.l2.ReadExReq_mshr_miss_rate::total            1                       # mshr miss rate for ReadExReq accesses
system.l2.ReadExReq_avg_mshr_miss_latency::.cpu.data 51474.358974                       # average ReadExReq mshr miss latency
system.l2.ReadExReq_avg_mshr_miss_latency::total 51474.358974                       # average ReadExReq mshr miss latency
system.l2.ReadCleanReq_hits::.cpu.inst              1                       # number of ReadCleanReq hits
system.l2.ReadCleanReq_hits::total                  1                       # number of ReadCleanReq hits
system.l2.ReadCleanReq_misses::.cpu.inst          256                       # number of ReadCleanReq misses
system.l2.ReadCleanReq_misses::total              256                       # number of ReadCleanReq misses
system.l2.ReadCleanReq_miss_latency::.cpu.inst     15667000                       # number of ReadCleanReq miss cycles
system.l2.ReadCleanReq_miss_latency::total     15667000                       # number of ReadCleanReq miss cycles
system.l2.ReadCleanReq_accesses::.cpu.inst          257                       # number of ReadCleanReq accesses(hits+misses)
system.l2.ReadCleanReq_accesses::total            257                       # number of ReadCleanReq accesses(hits+misses)
system.l2.ReadCleanReq_miss_rate::.cpu.inst     0.996109                       # miss rate for ReadCleanReq accesses
system.l2.ReadCleanReq_miss_rate::total      0.996109                       # miss rate for ReadCleanReq accesses
system.l2.ReadCleanReq_avg_miss_latency::.cpu.inst 61199.218750                       # average ReadCleanReq miss latency
system.l2.ReadCleanReq_avg_miss_latency::total 61199.218750                       # average ReadCleanReq miss latency
system.l2.ReadCleanReq_mshr_misses::.cpu.inst          256                       # number of ReadCleanReq MSHR misses
system.l2.ReadCleanReq_mshr_misses::total          256                       # number of ReadCleanReq MSHR misses
system.l2.ReadCleanReq_mshr_miss_latency::.cpu.inst     13107000                       # number of ReadCleanReq MSHR miss cycles
system.l2.ReadCleanReq_mshr_miss_latency::total     13107000                       # number of ReadCleanReq MSHR miss cycles
system.l2.ReadCleanReq_mshr_miss_rate::.cpu.inst     0.996109                       # mshr miss rate for ReadCleanReq accesses
system.l2.ReadCleanReq_mshr_miss_rate::total     0.996109                       # mshr miss rate for ReadCleanReq accesses
system.l2.ReadCleanReq_avg_mshr_miss_latency::.cpu.inst 51199.218750                       # average ReadCleanReq mshr miss latency
system.l2.ReadCleanReq_avg_mshr_miss_latency::total 51199.218750                       # average ReadCleanReq mshr miss latency
system.l2.ReadSharedReq_misses::.cpu.data           61                       # number of ReadSharedReq misses
system.l2.ReadSharedReq_misses::total              61                       # number of ReadSharedReq misses
system.l2.ReadSharedReq_miss_latency::.cpu.data      3763000                       # number of ReadSharedReq miss cycles
system.l2.ReadSharedReq_miss_latency::total      3763000                       # number of ReadSharedReq miss cycles
system.l2.ReadSharedReq_accesses::.cpu.data           61                       # number of ReadSharedReq accesses(hits+misses)
system.l2.ReadSharedReq_accesses::total            61                       # number of ReadSharedReq accesses(hits+misses)
system.l2.ReadSharedReq_miss_rate::.cpu.data            1                       # miss rate for ReadSharedReq accesses
system.l2.ReadSharedReq_miss_rate::total            1                       # miss rate for ReadSharedReq accesses
system.l2.ReadSharedReq_avg_miss_latency::.cpu.data 61688.524590                       # average ReadSharedReq miss latency
system.l2.ReadSharedReq_avg_miss_latency::total 61688.524590                       # average ReadSharedReq miss latency
system.l2.ReadSharedReq_mshr_misses::.cpu.data           61                       # number of ReadSharedReq MSHR misses
system.l2.ReadSharedReq_mshr_misses::total           61                       # number of ReadSharedReq MSHR misses
system.l2.ReadSharedReq_mshr_miss_latency::.cpu.data      3153000                       # number of ReadSharedReq MSHR miss cycles
system.l2.ReadSharedReq_mshr_miss_latency::total      3153000                       # number of ReadSharedReq MSHR miss cycles
system.l2.ReadSharedReq_mshr_miss_rate::.cpu.data            1                       # mshr miss rate for ReadSharedReq accesses
system.l2.ReadSharedReq_mshr_miss_rate::total            1                       # mshr miss rate for ReadSharedReq accesses
system.l2.ReadSharedReq_avg_mshr_miss_latency::.cpu.data 51688.524590                       # average ReadSharedReq mshr miss latency
system.l2.ReadSharedReq_avg_mshr_miss_latency::total 51688.524590                       # average ReadSharedReq mshr miss latency
system.l2.power_state.pwrStateResidencyTicks::UNDEFINED     27486000                       # Cumulative time (in ticks) in various power states
system.l2.tags.tagsinuse                   209.303361                       # Cycle average of tags in use
system.l2.tags.total_refs                         415                       # Total number of references to valid blocks.
system.l2.tags.sampled_refs                       395                       # Sample count of references to valid blocks.
system.l2.tags.avg_refs                      1.050633                       # Average number of references to valid blocks.
system.l2.tags.warmup_cycle                     53000                       # Cycle when the warmup percentage was hit.
system.l2.tags.occ_blocks::.cpu.inst       124.597473                       # Average occupied blocks per requestor
system.l2.tags.occ_blocks::.cpu.data        84.705889                       # Average occupied blocks per requestor
system.l2.tags.occ_percent::.cpu.inst        0.030419                       # Average percentage of cache occupancy
system.l2.tags.occ_percent::.cpu.data        0.020680                       # Average percentage of cache occupancy
system.l2.tags.occ_percent::total            0.051099                       # Average percentage of cache occupancy
system.l2.tags.occ_task_id_blocks::1024           395                       # Occupied blocks per task id
system.l2.tags.age_task_id_blocks_1024::0          149                       # Occupied blocks per task id
system.l2.tags.age_task_id_blocks_1024::1          246                       # Occupied blocks per task id
system.l2.tags.occ_task_id_percent::1024     0.096436                       # Percentage of cache occupancy per task id
system.l2.tags.tag_accesses                      2055                       # Number of tag accesses
system.l2.tags.data_accesses                     2055                       # Number of data accesses
system.l2.tags.power_state.pwrStateResidencyTicks::UNDEFINED     27486000                       # Cumulative time (in ticks) in various power states
system.cpu_voltage_domain.voltage                   1                       # Voltage in Volts
system.cpu_clk_domain.clock                       500                       # Clock period in ticks
system.cpu.icache.demand_hits::.cpu.inst         1107                       # number of demand (read+write) hits
system.cpu.icache.demand_hits::total             1107                       # number of demand (read+write) hits
system.cpu.icache.overall_hits::.cpu.inst         1107                       # number of overall hits
system.cpu.icache.overall_hits::total            1107                       # number of overall hits
system.cpu.icache.demand_misses::.cpu.inst          307                       # number of demand (read+write) misses
system.cpu.icache.demand_misses::total            307                       # number of demand (read+write) misses
system.cpu.icache.overall_misses::.cpu.inst          307                       # number of overall misses
system.cpu.icache.overall_misses::total           307                       # number of overall misses
system.cpu.icache.demand_miss_latency::.cpu.inst     19346000                       # number of demand (read+write) miss cycles
system.cpu.icache.demand_miss_latency::total     19346000                       # number of demand (read+write) miss cycles
system.cpu.icache.overall_miss_latency::.cpu.inst     19346000                       # number of overall miss cycles
system.cpu.icache.overall_miss_latency::total     19346000                       # number of overall miss cycles
system.cpu.icache.demand_accesses::.cpu.inst         1414                       # number of demand (read+write) accesses
system.cpu.icache.demand_accesses::total         1414                       # number of demand (read+write) accesses
system.cpu.icache.overall_accesses::.cpu.inst         1414                       # number of overall (read+write) accesses
system.cpu.icache.overall_accesses::total         1414                       # number of overall (read+write) accesses
system.cpu.icache.demand_miss_rate::.cpu.inst     0.217115                       # miss rate for demand accesses
system.cpu.icache.demand_miss_rate::total     0.217115                       # miss rate for demand accesses
system.cpu.icache.overall_miss_rate::.cpu.inst     0.217115                       # miss rate for overall accesses
system.cpu.icache.overall_miss_rate::total     0.217115                       # miss rate for overall accesses
system.cpu.icache.demand_avg_miss_latency::.cpu.inst 63016.286645                       # average overall miss latency
system.cpu.icache.demand_avg_miss_latency::total 63016.286645                       # average overall miss latency
system.cpu.icache.overall_avg_miss_latency::.cpu.inst 63016.286645                       # average overall miss latency
system.cpu.icache.overall_avg_miss_latency::total 63016.286645                       # average overall miss latency
system.cpu.icache.blocked_cycles::no_mshrs            0                       # number of cycles access was blocked
system.cpu.icache.blocked_cycles::no_targets            0                       # number of cycles access was blocked
system.cpu.icache.blocked::no_mshrs                 0                       # number of cycles access was blocked
system.cpu.icache.blocked::no_targets               0                       # number of cycles access was blocked
system.cpu.icache.avg_blocked_cycles::no_mshrs          nan                       # average number of cycles each access was blocked
system.cpu.icache.avg_blocked_cycles::no_targets          nan                       # average number of cycles each access was blocked
system.cpu.icache.writebacks::.writebacks           19                       # number of writebacks
system.cpu.icache.writebacks::total                19                       # number of writebacks
system.cpu.icache.demand_mshr_hits::.cpu.inst           50                       # number of demand (read+write) MSHR hits
system.cpu.icache.demand_mshr_hits::total           50                       # number of demand (read+write) MSHR hits
system.cpu.icache.overall_mshr_hits::.cpu.inst           50                       # number of overall MSHR hits
system.cpu.icache.overall_mshr_hits::total           50                       # number of overall MSHR hits
system.cpu.icache.demand_mshr_misses::.cpu.inst          257                       # number of demand (read+write) MSHR misses
system.cpu.icache.demand_mshr_misses::total          257                       # number of demand (read+write) MSHR misses
system.cpu.icache.overall_mshr_misses::.cpu.inst          257                       # number of overall MSHR misses
system.cpu.icache.overall_mshr_misses::total          257                       # number of overall MSHR misses
system.cpu.icache.demand_mshr_miss_latency::.cpu.inst     16324000                       # number of demand (read+write) MSHR miss cycles
system.cpu.icache.demand_mshr_miss_latency::total     16324000                       # number of demand (read+write) MSHR miss cycles
system.cpu.icache.overall_mshr_miss_latency::.cpu.inst     16324000                       # number of overall MSHR miss cycles
system.cpu.icache.overall_mshr_miss_latency::total     16324000                       # number of overall MSHR miss cycles
system.cpu.icache.demand_mshr_miss_rate::.cpu.inst     0.181754                       # mshr miss rate for demand accesses
system.cpu.icache.demand_mshr_miss_rate::total     0.181754                       # mshr miss rate for demand accesses
system.cpu.icache.overall_mshr_miss_rate::.cpu.inst     0.181754                       # mshr miss rate for overall accesses
system.cpu.icache.overall_mshr_miss_rate::total     0.181754                       # mshr miss rate for overall accesses
system.cpu.icache.demand_avg_mshr_miss_latency::.cpu.inst 63517.509728                       # average overall mshr miss latency
system.cpu.icache.demand_avg_mshr_miss_latency::total 63517.509728                       # average overall mshr miss latency
system.cpu.icache.overall_avg_mshr_miss_latency::.cpu.inst 63517.509728                       # average overall mshr miss latency
system.cpu.icache.overall_avg_mshr_miss_latency::total 63517.509728                       # average overall mshr miss latency
system.cpu.icache.replacements                     19                       # number of replacements
system.cpu.icache.ReadReq_hits::.cpu.inst         1107                       # number of ReadReq hits
system.cpu.icache.ReadReq_hits::total            1107                       # number of ReadReq hits
system.cpu.icache.ReadReq_misses::.cpu.inst          307                       # number of ReadReq misses
system.cpu.icache.ReadReq_misses::total           307                       # number of ReadReq misses
system.cpu.icache.ReadReq_miss_latency::.cpu.inst     19346000                       # number of ReadReq miss cycles
system.cpu.icache.ReadReq_miss_latency::total     19346000                       # number of ReadReq miss cycles
system.cpu.icache.ReadReq_accesses::.cpu.inst         1414                       # number of ReadReq accesses(hits+misses)
system.cpu.icache.ReadReq_accesses::total         1414                       # number of ReadReq accesses(hits+misses)
system.cpu.icache.ReadReq_miss_rate::.cpu.inst     0.217115                       # miss rate for ReadReq accesses
system.cpu.icache.ReadReq_miss_rate::total     0.217115                       # miss rate for ReadReq accesses
system.cpu.icache.ReadReq_avg_miss_latency::.cpu.inst 63016.286645                       # average ReadReq miss latency
system.cpu.icache.ReadReq_avg_miss_latency::total 63016.286645                       # average ReadReq miss latency
system.cpu.icache.ReadReq_mshr_hits::.cpu.inst           50                       # number of ReadReq MSHR hits
system.cpu.icache.ReadReq_mshr_hits::total           50                       # number of ReadReq MSHR hits
system.cpu.icache.ReadReq_mshr_misses::.cpu.inst          257                       # number of ReadReq MSHR misses
system.cpu.icache.ReadReq_mshr_misses::total          257                       # number of ReadReq MSHR misses
system.cpu.icache.ReadReq_mshr_miss_latency::.cpu.inst     16324000                       # number of ReadReq MSHR miss cycles
system.cpu.icache.ReadReq_mshr_miss_latency::total     16324000                       # number of ReadReq MSHR miss cycles
system.cpu.icache.ReadReq_mshr_miss_rate::.cpu.inst     0.181754                       # mshr miss rate for ReadReq accesses
system.cpu.icache.ReadReq_mshr_miss_rate::total     0.181754                       # mshr miss rate for ReadReq accesses
system.cpu.icache.ReadReq_avg_mshr_miss_latency::.cpu.inst 63517.509728                       # average ReadReq mshr miss latency
system.cpu.icache.ReadReq_avg_mshr_miss_latency::total 63517.509728                       # average ReadReq mshr miss latency
system.cpu.icache.power_state.pwrStateResidencyTicks::UNDEFINED     27486000                       # Cumulative time (in ticks) in various power states
system.cpu.icache.tags.tagsinuse           122.332192                       # Cycle average of tags in use
system.cpu.icache.tags.total_refs                1364                       # Total number of references to valid blocks.
system.cpu.icache.tags.sampled_refs               257                       # Sample count of references to valid blocks.
system.cpu.icache.tags.avg_refs              5.307393                       # Average number of references to valid blocks.
system.cpu.icache.tags.warmup_cycle             63500                       # Cycle when the warmup percentage was hit.
system.cpu.icache.tags.occ_blocks::.cpu.inst   122.332192                       # Average occupied blocks per requestor
system.cpu.icache.tags.occ_percent::.cpu.inst     0.238930                       # Average percentage of cache occupancy
system.cpu.icache.tags.occ_percent::total     0.238930                       # Average percentage of cache occupancy
system.cpu.icache.tags.occ_task_id_blocks::1024          238                       # Occupied blocks per task id
system.cpu.icache.tags.age_task_id_blocks_1024::0          111                       # Occupied blocks per task id
system.cpu.icache.tags.age_task_id_blocks_1024::1          127                       # Occupied blocks per task id
system.cpu.icache.tags.occ_task_id_percent::1024     0.464844                       # Percentage of cache occupancy per task id
system.cpu.icache.tags.tag_accesses              5913                       # Number of tag accesses
system.cpu.icache.tags.data_accesses             5913                       # Number of data accesses
system.cpu.icache.tags.power_state.pwrStateResidencyTicks::UNDEFINED     27486000                       # Cumulative time (in ticks) in various power states
system.cpu.dtb.walker.power_state.pwrStateResidencyTicks::UNDEFINED     27486000                       # Cumulative time (in ticks) in various power states
system.cpu.interrupts.clk_domain.clock          16000                       # Clock period in ticks
system.cpu.itb_walker_cache.blocked_cycles::no_mshrs            0                       # number of cycles access was blocked
system.cpu.itb_walker_cache.blocked_cycles::no_targets            0                       # number of cycles access was blocked
system.cpu.itb_walker_cache.blocked::no_mshrs            0                       # number of cycles access was blocked
system.cpu.itb_walker_cache.blocked::no_targets            0                       # number of cycles access was blocked
system.cpu.itb_walker_cache.avg_blocked_cycles::no_mshrs          nan                       # average number of cycles each access was blocked
system.cpu.itb_walker_cache.avg_blocked_cycles::no_targets          nan                       # average number of cycles each access was blocked
system.cpu.itb_walker_cache.replacements            0                       # number of replacements
system.cpu.itb_walker_cache.power_state.pwrStateResidencyTicks::UNDEFINED     27486000                       # Cumulative time (in ticks) in various power states
system.cpu.itb_walker_cache.tags.tagsinuse            0                       # Cycle average of tags in use
system.cpu.itb_walker_cache.tags.total_refs            0                       # Total number of references to valid blocks.
system.cpu.itb_walker_cache.tags.sampled_refs            0                       # Sample count of references to valid blocks.
system.cpu.itb_walker_cache.tags.avg_refs          nan                       # Average number of references to valid blocks.
system.cpu.itb_walker_cache.tags.warmup_cycle            0                       # Cycle when the warmup percentage was hit.
system.cpu.itb_walker_cache.tags.tag_accesses            0                       # Number of tag accesses
system.cpu.itb_walker_cache.tags.data_accesses            0                       # Number of data accesses
system.cpu.itb_walker_cache.tags.power_state.pwrStateResidencyTicks::UNDEFINED     27486000                       # Cumulative time (in ticks) in various power states
system.cpu.itb.walker.power_state.pwrStateResidencyTicks::UNDEFINED     27486000                       # Cumulative time (in ticks) in various power states
system.cpu.dtb_walker_cache.blocked_cycles::no_mshrs            0                       # number of cycles access was blocked
system.cpu.dtb_walker_cache.blocked_cycles::no_targets            0                       # number of cycles access was blocked
system.cpu.dtb_walker_cache.blocked::no_mshrs            0                       # number of cycles access was blocked
system.cpu.dtb_walker_cache.blocked::no_targets            0                       # number of cycles access was blocked
system.cpu.dtb_walker_cache.avg_blocked_cycles::no_mshrs          nan                       # average number of cycles each access was blocked
system.cpu.dtb_walker_cache.avg_blocked_cycles::no_targets          nan                       # average number of cycles each access was blocked
system.cpu.dtb_walker_cache.replacements            0                       # number of replacements
system.cpu.dtb_walker_cache.power_state.pwrStateResidencyTicks::UNDEFINED     27486000                       # Cumulative time (in ticks) in various power states
system.cpu.dtb_walker_cache.tags.tagsinuse            0                       # Cycle average of tags in use
system.cpu.dtb_walker_cache.tags.total_refs            0                       # Total number of references to valid blocks.
system.cpu.dtb_walker_cache.tags.sampled_refs            0                       # Sample count of references to valid blocks.
system.cpu.dtb_walker_cache.tags.avg_refs          nan                       # Average number of references to valid blocks.
system.cpu.dtb_walker_cache.tags.warmup_cycle            0                       # Cycle when the warmup percentage was hit.
system.cpu.dtb_walker_cache.tags.tag_accesses            0                       # Number of tag accesses
system.cpu.dtb_walker_cache.tags.data_accesses            0                       # Number of data accesses
system.cpu.dtb_walker_cache.tags.power_state.pwrStateResidencyTicks::UNDEFINED     27486000                       # Cumulative time (in ticks) in various power states
system.cpu.dcache.demand_hits::.cpu.data         2259                       # number of demand (read+write) hits
system.cpu.dcache.demand_hits::total             2259                       # number of demand (read+write) hits
system.cpu.dcache.overall_hits::.cpu.data         2259                       # number of overall hits
system.cpu.dcache.overall_hits::total            2259                       # number of overall hits
system.cpu.dcache.demand_misses::.cpu.data          166                       # number of demand (read+write) misses
system.cpu.dcache.demand_misses::total            166                       # number of demand (read+write) misses
system.cpu.dcache.overall_misses::.cpu.data          166                       # number of overall misses
system.cpu.dcache.overall_misses::total           166                       # number of overall misses
system.cpu.dcache.demand_miss_latency::.cpu.data     10649000                       # number of demand (read+write) miss cycles
system.cpu.dcache.demand_miss_latency::total     10649000                       # number of demand (read+write) miss cycles
system.cpu.dcache.overall_miss_latency::.cpu.data     10649000                       # number of overall miss cycles
system.cpu.dcache.overall_miss_latency::total     10649000                       # number of overall miss cycles
system.cpu.dcache.demand_accesses::.cpu.data         2425                       # number of demand (read+write) accesses
system.cpu.dcache.demand_accesses::total         2425                       # number of demand (read+write) accesses
system.cpu.dcache.overall_accesses::.cpu.data         2425                       # number of overall (read+write) accesses
system.cpu.dcache.overall_accesses::total         2425                       # number of overall (read+write) accesses
system.cpu.dcache.demand_miss_rate::.cpu.data     0.068454                       # miss rate for demand accesses
system.cpu.dcache.demand_miss_rate::total     0.068454                       # miss rate for demand accesses
system.cpu.dcache.overall_miss_rate::.cpu.data     0.068454                       # miss rate for overall accesses
system.cpu.dcache.overall_miss_rate::total     0.068454                       # miss rate for overall accesses
system.cpu.dcache.demand_avg_miss_latency::.cpu.data 64150.602410                       # average overall miss latency
system.cpu.dcache.demand_avg_miss_latency::total 64150.602410                       # average overall miss latency
system.cpu.dcache.overall_avg_miss_latency::.cpu.data 64150.602410                       # average overall miss latency
system.cpu.dcache.overall_avg_miss_latency::total 64150.602410                       # average overall miss latency
system.cpu.dcache.blocked_cycles::no_mshrs           24                       # number of cycles access was blocked
system.cpu.dcache.blocked_cycles::no_targets            0                       # number of cycles access was blocked
system.cpu.dcache.blocked::no_mshrs                 2                       # number of cycles access was blocked
system.cpu.dcache.blocked::no_targets               0                       # number of cycles access was blocked
system.cpu.dcache.avg_blocked_cycles::no_mshrs           12                       # average number of cycles each access was blocked
system.cpu.dcache.avg_blocked_cycles::no_targets          nan                       # average number of cycles each access was blocked
system.cpu.dcache.demand_mshr_hits::.cpu.data           27                       # number of demand (read+write) MSHR hits
system.cpu.dcache.demand_mshr_hits::total           27                       # number of demand (read+write) MSHR hits
system.cpu.dcache.overall_mshr_hits::.cpu.data           27                       # number of overall MSHR hits
system.cpu.dcache.overall_mshr_hits::total           27                       # number of overall MSHR hits
system.cpu.dcache.demand_mshr_misses::.cpu.data          139                       # number of demand (read+write) MSHR misses
system.cpu.dcache.demand_mshr_misses::total          139                       # number of demand (read+write) MSHR misses
system.cpu.dcache.overall_mshr_misses::.cpu.data          139                       # number of overall MSHR misses
system.cpu.dcache.overall_mshr_misses::total          139                       # number of overall MSHR misses
system.cpu.dcache.demand_mshr_miss_latency::.cpu.data      8905500                       # number of demand (read+write) MSHR miss cycles
system.cpu.dcache.demand_mshr_miss_latency::total      8905500                       # number of demand (read+write) MSHR miss cycles
system.cpu.dcache.overall_mshr_miss_latency::.cpu.data      8905500                       # number of overall MSHR miss cycles
system.cpu.dcache.overall_mshr_miss_latency::total      8905500                       # number of overall MSHR miss cycles
system.cpu.dcache.demand_mshr_miss_rate::.cpu.data     0.057320                       # mshr miss rate for demand accesses
system.cpu.dcache.demand_mshr_miss_rate::total     0.057320                       # mshr miss rate for demand accesses
system.cpu.dcache.overall_mshr_miss_rate::.cpu.data     0.057320                       # mshr miss rate for overall accesses
system.cpu.dcache.overall_mshr_miss_rate::total     0.057320                       # mshr miss rate for overall accesses
system.cpu.dcache.demand_avg_mshr_miss_latency::.cpu.data 64068.345324                       # average overall mshr miss latency
system.cpu.dcache.demand_avg_mshr_miss_latency::total 64068.345324                       # average overall mshr miss latency
system.cpu.dcache.overall_avg_mshr_miss_latency::.cpu.data 64068.345324                       # average overall mshr miss latency
system.cpu.dcache.overall_avg_mshr_miss_latency::total 64068.345324                       # average overall mshr miss latency
system.cpu.dcache.replacements                      0                       # number of replacements
system.cpu.dcache.ReadReq_hits::.cpu.data         1396                       # number of ReadReq hits
system.cpu.dcache.ReadReq_hits::total            1396                       # number of ReadReq hits
system.cpu.dcache.ReadReq_misses::.cpu.data           88                       # number of ReadReq misses
system.cpu.dcache.ReadReq_misses::total            88                       # number of ReadReq misses
system.cpu.dcache.ReadReq_miss_latency::.cpu.data      5464000                       # number of ReadReq miss cycles
system.cpu.dcache.ReadReq_miss_latency::total      5464000                       # number of ReadReq miss cycles
system.cpu.dcache.ReadReq_accesses::.cpu.data         1484                       # number of ReadReq accesses(hits+misses)
system.cpu.dcache.ReadReq_accesses::total         1484                       # number of ReadReq accesses(hits+misses)
system.cpu.dcache.ReadReq_miss_rate::.cpu.data     0.059299                       # miss rate for ReadReq accesses
system.cpu.dcache.ReadReq_miss_rate::total     0.059299                       # miss rate for ReadReq accesses
system.cpu.dcache.ReadReq_avg_miss_latency::.cpu.data 62090.909091                       # average ReadReq miss latency
system.cpu.dcache.ReadReq_avg_miss_latency::total 62090.909091                       # average ReadReq miss latency
system.cpu.dcache.ReadReq_mshr_hits::.cpu.data           27                       # number of ReadReq MSHR hits
system.cpu.dcache.ReadReq_mshr_hits::total           27                       # number of ReadReq MSHR hits
system.cpu.dcache.ReadReq_mshr_misses::.cpu.data           61                       # number of ReadReq MSHR misses
system.cpu.dcache.ReadReq_mshr_misses::total           61                       # number of ReadReq MSHR misses
system.cpu.dcache.ReadReq_mshr_miss_latency::.cpu.data      3915500                       # number of ReadReq MSHR miss cycles
system.cpu.dcache.ReadReq_mshr_miss_latency::total      3915500                       # number of ReadReq MSHR miss cycles
system.cpu.dcache.ReadReq_mshr_miss_rate::.cpu.data     0.041105                       # mshr miss rate for ReadReq accesses
system.cpu.dcache.ReadReq_mshr_miss_rate::total     0.041105                       # mshr miss rate for ReadReq accesses
system.cpu.dcache.ReadReq_avg_mshr_miss_latency::.cpu.data 64188.524590                       # average ReadReq mshr miss latency
system.cpu.dcache.ReadReq_avg_mshr_miss_latency::total 64188.524590                       # average ReadReq mshr miss latency
system.cpu.dcache.WriteReq_hits::.cpu.data          863                       # number of WriteReq hits
system.cpu.dcache.WriteReq_hits::total            863                       # number of WriteReq hits
system.cpu.dcache.WriteReq_misses::.cpu.data           78                       # number of WriteReq misses
system.cpu.dcache.WriteReq_misses::total           78                       # number of WriteReq misses
system.cpu.dcache.WriteReq_miss_latency::.cpu.data      5185000                       # number of WriteReq miss cycles
system.cpu.dcache.WriteReq_miss_latency::total      5185000                       # number of WriteReq miss cycles
system.cpu.dcache.WriteReq_accesses::.cpu.data          941                       # number of WriteReq accesses(hits+misses)
system.cpu.dcache.WriteReq_accesses::total          941                       # number of WriteReq accesses(hits+misses)
system.cpu.dcache.WriteReq_miss_rate::.cpu.data     0.082891                       # miss rate for WriteReq accesses
system.cpu.dcache.WriteReq_miss_rate::total     0.082891                       # miss rate for WriteReq accesses
system.cpu.dcache.WriteReq_avg_miss_latency::.cpu.data 66474.358974                       # average WriteReq miss latency
system.cpu.dcache.WriteReq_avg_miss_latency::total 66474.358974                       # average WriteReq miss latency
system.cpu.dcache.WriteReq_mshr_misses::.cpu.data           78                       # number of WriteReq MSHR misses
system.cpu.dcache.WriteReq_mshr_misses::total           78                       # number of WriteReq MSHR misses
system.cpu.dcache.WriteReq_mshr_miss_latency::.cpu.data      4990000                       # number of WriteReq MSHR miss cycles
system.cpu.dcache.WriteReq_mshr_miss_latency::total      4990000                       # number of WriteReq MSHR miss cycles
system.cpu.dcache.WriteReq_mshr_miss_rate::.cpu.data     0.082891                       # mshr miss rate for WriteReq accesses
system.cpu.dcache.WriteReq_mshr_miss_rate::total     0.082891                       # mshr miss rate for WriteReq accesses
system.cpu.dcache.WriteReq_avg_mshr_miss_latency::.cpu.data 63974.358974                       # average WriteReq mshr miss latency
system.cpu.dcache.WriteReq_avg_mshr_miss_latency::total 63974.358974                       # average WriteReq mshr miss latency
system.cpu.dcache.power_state.pwrStateResidencyTicks::UNDEFINED     27486000                       # Cumulative time (in ticks) in various power states
system.cpu.dcache.tags.tagsinuse            84.652789                       # Cycle average of tags in use
system.cpu.dcache.tags.total_refs                2398                       # Total number of references to valid blocks.
system.cpu.dcache.tags.sampled_refs               139                       # Sample count of references to valid blocks.
system.cpu.dcache.tags.avg_refs             17.251799                       # Average number of references to valid blocks.
system.cpu.dcache.tags.warmup_cycle            136500                       # Cycle when the warmup percentage was hit.
system.cpu.dcache.tags.occ_blocks::.cpu.data    84.652789                       # Average occupied blocks per requestor
system.cpu.dcache.tags.occ_percent::.cpu.data     0.165337                       # Average percentage of cache occupancy
system.cpu.dcache.tags.occ_percent::total     0.165337                       # Average percentage of cache occupancy
system.cpu.dcache.tags.occ_task_id_blocks::1024          139                       # Occupied blocks per task id
system.cpu.dcache.tags.age_task_id_blocks_1024::0           39                       # Occupied blocks per task id
system.cpu.dcache.tags.age_task_id_blocks_1024::1          100                       # Occupied blocks per task id
system.cpu.dcache.tags.occ_task_id_percent::1024     0.271484                       # Percentage of cache occupancy per task id
system.cpu.dcache.tags.tag_accesses              9839                       # Number of tag accesses
system.cpu.dcache.tags.data_accesses             9839                       # Number of data accesses
system.cpu.dcache.tags.power_state.pwrStateResidencyTicks::UNDEFINED     27486000                       # Cumulative time (in ticks) in various power states
system.cpu.power_state.pwrStateResidencyTicks::ON     27486000                       # Cumulative time (in ticks) in various power states

---------- End Simulation Statistics   ----------
